*Heading
** Job name: Job-1 Model name: Model-1
** Generated by: Abaqus/CAE 2022
*Preprint, echo=NO, model=NO, history=NO, contact=NO
**
** PARTS
**
*Part, name=Part-1
*End Part
**  
**
** ASSEMBLY
**
*Assembly, name=Assembly
**  
*Instance, name=Part-1-1, part=Part-1
*Node
      1,          40.,           5.,           5.
      2,          40.,           4.,           5.
      3,          40.,           3.,           5.
      4,          40.,           2.,           5.
      5,          40.,           1.,           5.
      6,          40.,           0.,           5.
      7,          40.,           5.,           4.
      8,          40.,           4.,           4.
      9,          40.,           3.,           4.
     10,          40.,           2.,           4.
     11,          40.,           1.,           4.
     12,          40.,           0.,           4.
     13,          40.,           5.,           3.
     14,          40.,           4.,           3.
     15,          40.,           3.,           3.
     16,          40.,           2.,           3.
     17,          40.,           1.,           3.
     18,          40.,           0.,           3.
     19,          40.,           5.,           2.
     20,          40.,           4.,           2.
** ... 1456 like lines cut
*Element, type=C3D8R
   1,   37,   38,   44,   43,    1,    2,    8,    7
   2,   38,   39,   45,   44,    2,    3,    9,    8
   3,   39,   40,   46,   45,    3,    4,   10,    9
   4,   40,   41,   47,   46,    4,    5,   11,   10
   5,   41,   42,   48,   47,    5,    6,   12,   11
   6,   43,   44,   50,   49,    7,    8,   14,   13
   7,   44,   45,   51,   50,    8,    9,   15,   14
   8,   45,   46,   52,   51,    9,   10,   16,   15
   9,   46,   47,   53,   52,   10,   11,   17,   16
  10,   47,   48,   54,   53,   11,   12,   18,   17
  11,   49,   50,   56,   55,   13,   14,   20,   19
  12,   50,   51,   57,   56,   14,   15,   21,   20
  13,   51,   52,   58,   57,   15,   16,   22,   21
  14,   52,   53,   59,   58,   16,   17,   23,   22
  15,   53,   54,   60,   59,   17,   18,   24,   23
  16,   55,   56,   62,   61,   19,   20,   26,   25
  17,   56,   57,   63,   62,   20,   21,   27,   26
  18,   57,   58,   64,   63,   21,   22,   28,   27
  19,   58,   59,   65,   64,   22,   23,   29,   28
  20,   59,   60,   66,   65,   23,   24,   30,   29
** ... 980 like lines cut
*Nset, nset=_PickedSet2, internal, generate
    1,  1476,     1
*Elset, elset=_PickedSet2, internal, generate
    1,  1000,     1
** Section: Section-1
*Solid Section, elset=_PickedSet2, material=Material-1
,
*End Instance
**  
*Nset, nset=_PickedSet4, internal, instance=Part-1-1
  1,  6, 31, 36
*Nset, nset=_PickedSet5, internal, instance=Part-1-1, generate
 1441,  1476,     1
*Elset, elset=_PickedSet5, internal, instance=Part-1-1, generate
  976,  1000,     1
*Nset, nset="_T-Datum csys-1", internal
_PickedSet5, 
_PickedSet4, 
*Transform, nset="_T-Datum csys-1"
          1.,           0.,           0.,           0.,           1.,           0.
*End Assembly
** 
** MATERIALS
** 
*Material, name=Material-1
*Density
2700.,
*Elastic
 7e+10, 0.33
** ----------------------------------------------------------------
** 
** STEP: Step-1
** 
*Step, name=Step-1, nlgeom=NO
*Static
0.01, 1., 1e-05, 0.1
** 
** BOUNDARY CONDITIONS
** 
** Name: BC-1 Type: Symmetry/Antisymmetry/Encastre
*Boundary
_PickedSet5, ENCASTRE
** 
** LOADS
** 
** Name: Load-1   Type: Concentrated force
*Cload
_PickedSet4, 2, -10.
** 
** OUTPUT REQUESTS
** 
*Restart, write, frequency=0
** 
** FIELD OUTPUT: F-Output-1
** 
*Output, field, variable=PRESELECT
** 
** HISTORY OUTPUT: H-Output-1
** 
*Output, history, variable=PRESELECT
*End Step
